Version 4
SHEET 1 880 680
WIRE 192 64 112 64
WIRE 240 64 192 64
WIRE 336 64 240 64
WIRE 240 128 240 64
WIRE 192 144 192 64
WIRE -48 160 -112 160
WIRE 112 160 112 128
WIRE 112 160 32 160
WIRE 336 160 336 128
WIRE 432 160 336 160
WIRE 544 160 512 160
WIRE 112 176 112 160
WIRE 336 176 336 160
WIRE -112 272 -112 240
WIRE 112 272 112 240
WIRE 192 272 192 208
WIRE 240 272 240 208
WIRE 336 272 336 240
WIRE 544 272 544 160
FLAG 112 272 0
FLAG 240 272 0
FLAG 336 272 0
FLAG -112 272 0
FLAG 544 272 0
FLAG 192 272 0
SYMBOL cap 96 176 R0
SYMATTR InstName C1
SYMATTR Value 73p
SYMBOL cap 96 64 R0
SYMATTR InstName C2
SYMATTR Value 7.3p
SYMBOL ind 224 112 R0
SYMATTR InstName L1
SYMATTR Value 80n
SYMBOL cap 320 176 R0
SYMATTR InstName C3
SYMATTR Value 73p
SYMBOL cap 320 64 R0
SYMATTR InstName C4
SYMATTR Value 7.3p
SYMBOL res 528 144 R90
WINDOW 0 0 56 VBottom 2
WINDOW 3 32 56 VTop 2
SYMATTR InstName R1
SYMATTR Value 50R
SYMBOL res 48 144 R90
WINDOW 0 0 56 VBottom 2
WINDOW 3 32 56 VTop 2
SYMATTR InstName R2
SYMATTR Value 50R
SYMBOL Misc\\signal -112 144 R0
WINDOW 0 35 75 Left 2
SYMATTR InstName V1
SYMATTR Value AC 1
SYMBOL cap 176 144 R0
SYMATTR InstName C5
SYMATTR Value 15p
TEXT -16 384 Left 2 !.ac oct 200 10000000 1000000000
